/*--------------------------------*- C++ -*----------------------------------*\
| =========                 |                                                 |
| \\      /  F ield         | OpenFOAM: The Open Source CFD Toolbox           |
|  \\    /   O peration     | Version:  5                                     |
|   \\  /    A nd           | Web:      www.OpenFOAM.org                      |
|    \\/     M anipulation  |                                                 |
\*---------------------------------------------------------------------------*/
FoamFile
{
    version     2.0;
    format      ascii;
    class       dictionary;
    object      blockMeshDict;
}
// * * * * * * * * * * * * * * * * * * * * * * * * * * * * * * * * * * * * * //

backgroundMesh
{
    xMin     -2; // L = 22
    xMax     20;
    yMin     0; // L = 3
    yMax     3;
    zMin     0;//
    zMax     6;

// for about a perfect aspect ratio of 1, try x cells 120, ycells 30, zcells about 45

    xCells   220; //22x10 maintain this for aspect ratio close to 1
    yCells    60; //3x20   maintain this for aspect ratio close to 1
    zCells   90;  //6x15   maintain this for aspect ratio close to 1

}

convertToMeters 1;

vertices
(
    ($:backgroundMesh.xMin $:backgroundMesh.yMin $:backgroundMesh.zMin)
    ($:backgroundMesh.xMax $:backgroundMesh.yMin $:backgroundMesh.zMin)
    ($:backgroundMesh.xMax $:backgroundMesh.yMax $:backgroundMesh.zMin)
    ($:backgroundMesh.xMin $:backgroundMesh.yMax $:backgroundMesh.zMin)

    ($:backgroundMesh.xMin $:backgroundMesh.yMin $:backgroundMesh.zMax)
    ($:backgroundMesh.xMax $:backgroundMesh.yMin $:backgroundMesh.zMax)
    ($:backgroundMesh.xMax $:backgroundMesh.yMax $:backgroundMesh.zMax)
    ($:backgroundMesh.xMin $:backgroundMesh.yMax $:backgroundMesh.zMax)
);

blocks
(
    hex (0 1 2 3 4 5 6 7)
    (
        $:backgroundMesh.xCells
        $:backgroundMesh.yCells
        $:backgroundMesh.zCells
    )
    simpleGrading (1 1 1)
);

edges
(
);

boundary
(
    inlet
    {
        type patch;
        faces
        (
            (0 3 7 4)
        );
    }

    outlet
    {
        type patch;
        faces
        (
            (1 5 6 2)
        );
    }

    ground
    {
        type wall;
        faces
        (
            (0 4 5 1)
        );
    }

    frontAndBack
    {
        type wall;
        faces
        (
            (0 1 2 3)
            (3 2 6 7)
            (4 7 6 5)
        );
    }

);

mergePatchPairs
(
);

// ************************************************************************* //
