/*--------------------------------*- C++ -*----------------------------------*\
| =========                 |                                                 |
| \\      /  F ield         | OpenFOAM: The Open Source CFD Toolbox           |
|  \\    /   O peration     | Version:  11                                    |
|   \\  /    A nd           | Website:  www.openfoam.org                      |
|    \\/     M anipulation  |                                                 |
\*---------------------------------------------------------------------------*/
FoamFile
{
    version     2.0;
    format      ascii;
    class       dictionary;
    location    "system";
    object      controlDict;
}

application     foamRun;

solver          incompressibleFluid;

startFrom       latestTime;

startTime       0;

stopAt          endTime;

endTime         20;

deltaT          0.0001;

writeControl    timeStep;

writeInterval   20000;

purgeWrite      0;

writeFormat     ascii;

writePrecision  6;

writeCompression off;

timeFormat      general;

timePrecision   6;

runTimeModifiable true;

functions
{
      

         yPlus1
{
    type        yPlus;
    libs        ("libfieldFunctionObjects.so");
    writeControl   timeStep;
    writeInterval  20000; 
}

// editable 

// Center is at (16,3)

    Inlet_vel
    {
        
                type            probes;
        libs            ("libsampling.so");
        enabled         true;
        writeControl   timeStep;
        writeInterval  20;  //deltaT*writeInterval=0.02, this should make the probes to write U at every time step

        fields
        (
            U p
        );
        
        
        
        probeLocations //locations to be probed
        (
 
(	-1	1.5	3	)	//inlet velocity (plot to see the sine wave)
            
        );

        
    };


Roof_WERFL_fixed
    {
        
                type            probes;
        libs            ("libsampling.so");
        enabled         true;
        writeControl   timeStep;
        writeInterval  20;  //deltaT*writeInterval=0.02, this should make the probes to write U at every time step

        fields
        (
            U p
        );
        
        
	probeLocations //locations to be probed
        (
 
(	13.991315	0.202575	3.112875	)
(	13.991315	0.202575	2.887125	)
(	14.011865	0.202515	3.317945	)
(	14.011865	0.202515	3.279845	)
(	14.011865	0.202515	3.241745	)
(	14.011865	0.202515	3.203645	)
(	14.011865	0.202515	3.165545	)
(	14.011865	0.202515	3.051245	)
(	14.011865	0.202515	3.013145	)
(	14.011865	0.202515	2.975005	)
(	14.011865	0.202515	2.936905	)
(	14.011865	0.202515	2.822605	)
(	14.011865	0.202515	2.784505	)
(	14.011865	0.202515	2.746405	)
(	14.011865	0.202515	2.708305	)
(	14.011865	0.202515	2.670205	)
(	13.988135	0.202515	3.317945	)
(	13.988135	0.202515	3.279845	)
(	13.988135	0.202515	3.241745	)
(	13.988135	0.202515	3.203645	)
(	13.988135	0.202515	3.165545	)
(	13.988135	0.202515	3.051245	)
(	13.988135	0.202515	3.013145	)
(	13.988135	0.202515	2.975005	)
(	13.988135	0.202515	2.936905	)
(	13.988135	0.202515	2.822605	)
(	13.988135	0.202515	2.784505	)
(	13.988135	0.202515	2.746405	)
(	13.988135	0.202515	2.708305	)
(	13.988135	0.202515	2.670205	)
(	13.950225	0.201785	3.112875	)
(	13.950225	0.201785	2.887125	)
(	14.049955	0.201715	3.317945	)
(	14.049955	0.201715	3.279845	)
(	14.049955	0.201715	3.241745	)
(	14.049955	0.201715	3.203645	)
(	14.049955	0.201715	3.165545	)
(	14.049955	0.201715	3.051245	)
(	14.049955	0.201715	3.013145	)
(	14.049955	0.201715	2.975005	)
(	14.049955	0.201715	2.936905	)
(	14.049955	0.201715	2.822605	)
(	14.049955	0.201715	2.784505	)
(	14.049955	0.201715	2.746405	)
(	14.049955	0.201715	2.708305	)
(	14.049955	0.201715	2.670205	)
(	13.950045	0.201715	3.317945	)
(	13.950045	0.201715	3.279845	)
(	13.950045	0.201715	3.241745	)
(	13.950045	0.201715	3.203645	)
(	13.950045	0.201715	3.165545	)
(	13.950045	0.201715	3.051245	)
(	13.950045	0.201715	3.013145	)
(	13.950045	0.201715	2.975005	)
(	13.950045	0.201715	2.936905	)
(	13.950045	0.201715	2.822605	)
(	13.950045	0.201715	2.784505	)
(	13.950045	0.201715	2.746405	)
(	13.950045	0.201715	2.708305	)
(	13.950045	0.201715	2.670205	)
(	14.079215	0.201105	3.336995	)
(	14.079215	0.201105	3.317945	)
(	14.079215	0.201105	3.298895	)
(	14.079215	0.201105	3.279845	)
(	14.079215	0.201105	3.260795	)
(	14.079215	0.201105	3.241745	)
(	14.079215	0.201105	3.222795	)
(	14.079215	0.201105	3.203645	)
(	14.079215	0.201105	3.184595	)
(	14.079215	0.201105	3.165545	)
(	14.079215	0.201105	3.146495	)
(	14.079215	0.201105	3.127445	)
(	14.079215	0.201105	3.051245	)
(	14.079215	0.201105	3.013145	)
(	14.079215	0.201105	2.975005	)
(	14.079215	0.201105	2.936905	)
(	14.079215	0.201105	2.898805	)
(	14.079215	0.201105	2.860705	)
(	14.079215	0.201105	2.822605	)
(	14.079215	0.201105	2.784505	)
(	14.079215	0.201105	2.746405	)
(	14.079215	0.201105	2.708305	)
(	14.079215	0.201105	2.670205	)
(	13.920785	0.201105	3.336995	)
(	13.920785	0.201105	3.317945	)
(	13.920785	0.201105	3.298895	)
(	13.920785	0.201105	3.279845	)
(	13.920785	0.201105	3.260795	)
(	13.920785	0.201105	3.241745	)
(	13.920785	0.201105	3.222795	)
(	13.920785	0.201105	3.203645	)
(	13.920785	0.201105	3.184595	)
(	13.920785	0.201105	3.165545	)
(	13.920785	0.201105	3.127445	)
(	13.920785	0.201105	3.146495	)
(	13.920785	0.201105	3.051245	)
(	13.920785	0.201105	3.013145	)
(	13.920785	0.201105	2.975005	)
(	13.920785	0.201105	2.936905	)
(	13.920785	0.201105	2.898805	)
(	13.920785	0.201105	2.860705	)
(	13.920785	0.201105	2.822605	)
(	13.920785	0.201105	2.784505	)
(	13.920785	0.201105	2.746405	)
(	13.920785	0.201105	2.708305	)
(	13.920785	0.201105	2.670205	)
(	14.084875	0.200995	3.112875	)
(	14.084875	0.200995	2.887125	)
(	13.915125	0.200995	3.112875	)
(	13.915125	0.200995	2.887125	)
(	14.103915	0.200595	3.317945	)
(	14.103915	0.200595	3.279845	)
(	14.103915	0.200595	3.241745	)
(	14.103915	0.200595	3.203645	)
(	14.103915	0.200595	3.165545	)
(	14.103915	0.200595	3.127445	)
(	14.103915	0.200595	3.112875	)
(	14.103915	0.200595	2.887125	)
(	13.896085	0.200595	3.317945	)
(	13.896085	0.200595	3.279845	)
(	13.896085	0.200595	3.241745	)
(	13.896085	0.200595	3.203645	)
(	13.896085	0.200595	3.165545	)
(	13.896085	0.200595	3.127445	)
(	13.896085	0.200595	3.112875	)
(	13.896085	0.200595	2.887125	)
(	14.122965	0.200195	3.112875	)
(	14.122965	0.200195	2.887125	)
(	13.877035	0.200195	3.112875	)
(	13.877035	0.200195	2.887125	)
(	14.126135	0.200135	3.051245	)
(	14.126135	0.200135	3.013145	)
(	14.126135	0.200135	2.975005	)
(	14.126135	0.200135	2.936905	)
(	14.126135	0.200135	2.822605	)
(	14.126135	0.200135	2.784505	)
(	14.126135	0.200135	2.746405	)
(	14.126135	0.200135	2.708305	)
(	14.126135	0.200135	2.670205	)
(	13.873863	0.200135	3.051245	)
(	13.873863	0.200135	3.013145	)
(	13.873863	0.200135	2.975005	)
(	13.873863	0.200135	2.936905	)
(	13.873863	0.200135	2.822605	)
(	13.873863	0.200135	2.784505	)
(	13.873863	0.200135	2.746405	)
(	13.873863	0.200135	2.708305	)
(	13.873863	0.200135	2.670205	)
(	14.129315	0.200065	3.336995	)
(	14.129315	0.200065	3.317945	)
(	14.129315	0.200065	3.298895	)
(	14.129315	0.200065	3.279845	)
(	14.129315	0.200065	3.260795	)
(	14.129315	0.200065	3.241745	)
(	14.129315	0.200065	3.222795	)
(	14.129315	0.200065	3.203645	)
(	14.129315	0.200065	3.184595	)
(	14.129315	0.200065	3.165545	)
(	13.870685	0.200065	3.336995	)
(	13.870685	0.200065	3.317945	)
(	13.870685	0.200065	3.298895	)
(	13.870685	0.200065	3.279845	)
(	13.870685	0.200065	3.260795	)
(	13.870685	0.200065	3.241745	)
(	13.870685	0.200065	3.222795	)
(	13.870685	0.200065	3.203645	)
(	13.870685	0.200065	3.184595	)
(	13.870685	0.200065	3.165545	)
(	14.142005	0.199805	3.336995	)
(	14.142005	0.199805	3.317945	)
(	14.142005	0.199805	3.298895	)
(	14.142005	0.199805	3.279845	)
(	14.142005	0.199805	3.260795	)
(	14.142005	0.199805	3.241745	)
(	14.142005	0.199805	3.222795	)
(	14.142005	0.199805	3.203645	)
(	14.142005	0.199805	3.184595	)
(	14.142005	0.199805	3.165545	)
(	14.142005	0.199805	3.127445	)
(	14.142005	0.199805	3.112875	)
(	14.142005	0.199805	2.887125	)
(	13.857995	0.199805	3.336995	)
(	13.857995	0.199805	3.317945	)
(	13.857995	0.199805	3.298895	)
(	13.857995	0.199805	3.279845	)
(	13.857995	0.199805	3.260795	)
(	13.857995	0.199805	3.241745	)
(	13.857995	0.199805	3.222795	)
(	13.857995	0.199805	3.203645	)
(	13.857995	0.199805	3.184595	)
(	13.857995	0.199805	3.165545	)
(	13.857995	0.199805	3.127445	)
(	13.857995	0.199805	3.112875	)
(	13.857995	0.199805	2.887125	)
(	14.154705	0.199535	3.336995	)
(	14.154705	0.199535	3.317945	)
(	14.154705	0.199535	3.298895	)
(	14.154705	0.199535	3.279845	)
(	14.154705	0.199535	3.260795	)
(	14.154705	0.199535	3.241745	)
(	14.154705	0.199535	3.222795	)
(	14.154705	0.199535	3.203645	)
(	14.154705	0.199535	3.184595	)
(	14.154705	0.199535	3.165545	)
(	13.845295	0.199535	3.336995	)
(	13.845295	0.199535	3.317945	)
(	13.845295	0.199535	3.298895	)
(	13.845295	0.199535	3.279845	)
(	13.845295	0.199535	3.260795	)
(	13.845295	0.199535	3.241745	)
(	13.845295	0.199535	3.222795	)
(	13.845295	0.199535	3.203645	)
(	13.845295	0.199535	3.184595	)
(	13.845295	0.199535	3.165545	)
(	14.161055	0.199405	3.112875	)
(	14.161055	0.199405	2.887125	)
(	13.838945	0.199405	3.112875	)
(	13.838945	0.199405	2.887125	)
(	14.164225	0.199335	3.051245	)
(	14.164225	0.199335	3.013145	)
(	14.164225	0.199335	2.975005	)
(	14.164225	0.199335	2.936905	)
(	14.164225	0.199335	2.822605	)
(	14.164225	0.199335	2.784505	)
(	14.164225	0.199335	2.746405	)
(	14.164225	0.199335	2.708305	)
(	14.164225	0.199335	2.670205	)
(	13.835775	0.199335	3.051245	)
(	13.835775	0.199335	3.013145	)
(	13.835775	0.199335	2.975005	)
(	13.835775	0.199335	2.936905	)
(	13.835775	0.199335	2.822605	)
(	13.835775	0.199335	2.784505	)
(	13.835775	0.199335	2.746405	)
(	13.835775	0.199335	2.708305	)
(	13.835775	0.199335	2.670205	)
(	14.167405	0.199275	3.336995	)
(	14.167405	0.199275	3.317945	)
(	14.167405	0.199275	3.298895	)
(	14.167405	0.199275	3.279845	)
(	14.167405	0.199275	3.260795	)
(	14.167405	0.199275	3.241745	)
(	14.167405	0.199275	3.222795	)
(	14.167405	0.199275	3.203645	)
(	14.167405	0.199275	3.184595	)
(	14.167405	0.199275	3.165545	)
(	13.832595	0.199275	3.336995	)
(	13.832595	0.199275	3.317945	)
(	13.832595	0.199275	3.298895	)
(	13.832595	0.199275	3.279845	)
(	13.832595	0.199275	3.260795	)
(	13.832595	0.199275	3.241745	)
(	13.832595	0.199275	3.222795	)
(	13.832595	0.199275	3.203645	)
(	13.832595	0.199275	3.184595	)
(	13.832595	0.199275	3.165545	)
(	14.180105	0.199005	3.336995	)
(	14.180105	0.199005	3.317945	)
(	14.180105	0.199005	3.298895	)
(	14.180105	0.199005	3.279845	)
(	14.180105	0.199005	3.260795	)
(	14.180105	0.199005	3.241745	)
(	14.180105	0.199005	3.222795	)
(	14.180105	0.199005	3.203645	)
(	14.180105	0.199005	3.184595	)
(	14.180105	0.199005	3.165545	)
(	14.180105	0.199005	3.127445	)
(	14.180105	0.199005	3.112875	)
(	14.180105	0.199005	2.887125	)
(	13.819895	0.199005	3.336995	)
(	13.819895	0.199005	3.317945	)
(	13.819895	0.199005	3.298895	)
(	13.819895	0.199005	3.279845	)
(	13.819895	0.199005	3.260795	)
(	13.819895	0.199005	3.241745	)
(	13.819895	0.199005	3.222795	)
(	13.819895	0.199005	3.203645	)
(	13.819895	0.199005	3.184595	)
(	13.819895	0.199005	3.165545	)
(	13.819895	0.199005	3.127445	)
(	13.819895	0.199005	3.112875	)
(	13.819895	0.199005	2.887125	)
(	14.192795	0.198745	3.336995	)
(	14.192795	0.198745	3.317945	)
(	14.192795	0.198745	3.298895	)
(	14.192795	0.198745	3.279845	)
(	14.192795	0.198745	3.260795	)
(	14.192795	0.198745	3.241745	)
(	14.192795	0.198745	3.222795	)
(	14.192795	0.198745	3.203645	)
(	14.192795	0.198745	3.184595	)
(	14.192795	0.198745	3.165545	)
(	13.807205	0.198745	3.336995	)
(	13.807205	0.198745	3.317945	)
(	13.807205	0.198745	3.298895	)
(	13.807205	0.198745	3.279845	)
(	13.807205	0.198745	3.260795	)
(	13.807205	0.198745	3.241745	)
(	13.807205	0.198745	3.222795	)
(	13.807205	0.198745	3.203645	)
(	13.807205	0.198745	3.184595	)
(	13.807205	0.198745	3.165545	)
(	14.199145	0.198615	3.112875	)
(	14.199145	0.198615	2.887125	)
(	13.800855	0.198615	3.112875	)
(	13.800855	0.198615	2.887125	)
(	14.202325	0.198545	3.051245	)
(	14.202325	0.198545	3.013145	)
(	14.202325	0.198545	2.975005	)
(	14.202325	0.198545	2.936905	)
(	14.202325	0.198545	2.822605	)
(	14.202325	0.198545	2.784505	)
(	14.202325	0.198545	2.746405	)
(	14.202325	0.198545	2.708305	)
(	14.202325	0.198545	2.670205	)
(	13.797675	0.198545	3.051245	)
(	13.797675	0.198545	3.013145	)
(	13.797675	0.198545	2.975005	)
(	13.797675	0.198545	2.936905	)
(	13.797675	0.198545	2.822605	)
(	13.797675	0.198545	2.784505	)
(	13.797675	0.198545	2.746405	)
(	13.797675	0.198545	2.708305	)
(	13.797675	0.198545	2.670205	)
(	14.205495	0.198475	3.336995	)
(	14.205495	0.198475	3.317945	)
(	14.205495	0.198475	3.298895	)
(	14.205495	0.198475	3.279845	)
(	14.205495	0.198475	3.260795	)
(	14.205495	0.198475	3.241745	)
(	14.205495	0.198475	3.222795	)
(	14.205495	0.198475	3.203645	)
(	14.205495	0.198475	3.184595	)
(	14.205495	0.198475	3.165545	)
(	13.794505	0.198475	3.336995	)
(	13.794505	0.198475	3.317945	)
(	13.794505	0.198475	3.298895	)
(	13.794505	0.198475	3.279845	)
(	13.794505	0.198475	3.260795	)
(	13.794505	0.198475	3.241745	)
(	13.794505	0.198475	3.222795	)
(	13.794505	0.198475	3.203645	)
(	13.794505	0.198475	3.184595	)
(	13.794505	0.198475	3.165545	)
(	14.218195	0.198215	3.336995	)
(	14.218195	0.198215	3.317945	)
(	14.218195	0.198215	3.298895	)
(	14.218195	0.198215	3.279845	)
(	14.218195	0.198215	3.260795	)
(	14.218195	0.198215	3.241745	)
(	14.218195	0.198215	3.222795	)
(	14.218195	0.198215	3.203645	)
(	14.218195	0.198215	3.184595	)
(	14.218195	0.198215	3.165545	)
(	14.218195	0.198215	3.127445	)
(	14.218195	0.198215	3.112875	)
(	14.218195	0.198215	2.887125	)
(	13.781805	0.198215	3.336995	)
(	13.781805	0.198215	3.317945	)
(	13.781805	0.198215	3.298895	)
(	13.781805	0.198215	3.279845	)
(	13.781805	0.198215	3.260795	)
(	13.781805	0.198215	3.241745	)
(	13.781805	0.198215	3.222795	)
(	13.781805	0.198215	3.203645	)
(	13.781805	0.198215	3.184595	)
(	13.781805	0.198215	3.165545	)
(	13.781805	0.198215	3.127445	)
(	13.781805	0.198215	3.112875	)
(	13.781805	0.198215	2.887125	)
(	14.008555	0.202575	3.112875	)  //these 4 probes weren't working. So I changed the height.
(	14.008555	0.202575	2.887125	)
(	14.046645	0.201785	3.112875	)
(	14.046645	0.201785	2.887125	)

            
        );

};

WindWard_Wall
    {
        
                type            probes;
        libs            ("libsampling.so");
        enabled         true;
        writeControl   timeStep;
        writeInterval  20;  //deltaT*writeInterval=0.02, this should make the probes to write U at every time step

        fields
        (
            U p
        );
        
        
        
        probeLocations //locations to be probed
        (

(	13.764000	0.010000	2.660000	)
(	13.764000	0.030000	2.660000	)
(	13.764000	0.050000	2.660000	)
(	13.764000	0.070000	2.660000	)
(	13.764000	0.090000	2.660000	)
(	13.764000	0.110000	2.660000	)
(	13.764000	0.130000	2.660000	)
(	13.764000	0.150000	2.660000	)
(	13.764000	0.170000	2.660000	)
(	13.764000	0.190000	2.660000	)
(	13.764000	0.010000	2.705000	)
(	13.764000	0.030000	2.705000	)
(	13.764000	0.050000	2.705000	)
(	13.764000	0.070000	2.705000	)
(	13.764000	0.090000	2.705000	)
(	13.764000	0.110000	2.705000	)
(	13.764000	0.130000	2.705000	)
(	13.764000	0.150000	2.705000	)
(	13.764000	0.170000	2.705000	)
(	13.764000	0.190000	2.705000	)
(	13.764000	0.010000	2.750000	)
(	13.764000	0.030000	2.750000	)
(	13.764000	0.050000	2.750000	)
(	13.764000	0.070000	2.750000	)
(	13.764000	0.090000	2.750000	)
(	13.764000	0.110000	2.750000	)
(	13.764000	0.130000	2.750000	)
(	13.764000	0.150000	2.750000	)
(	13.764000	0.170000	2.750000	)
(	13.764000	0.190000	2.750000	)
(	13.764000	0.010000	2.795000	)
(	13.764000	0.030000	2.795000	)
(	13.764000	0.050000	2.795000	)
(	13.764000	0.070000	2.795000	)
(	13.764000	0.090000	2.795000	)
(	13.764000	0.110000	2.795000	)
(	13.764000	0.130000	2.795000	)
(	13.764000	0.150000	2.795000	)
(	13.764000	0.170000	2.795000	)
(	13.764000	0.190000	2.795000	)
(	13.764000	0.010000	2.840000	)
(	13.764000	0.030000	2.840000	)
(	13.764000	0.050000	2.840000	)
(	13.764000	0.070000	2.840000	)
(	13.764000	0.090000	2.840000	)
(	13.764000	0.110000	2.840000	)
(	13.764000	0.130000	2.840000	)
(	13.764000	0.150000	2.840000	)
(	13.764000	0.170000	2.840000	)
(	13.764000	0.190000	2.840000	)
(	13.764000	0.010000	2.885000	)
(	13.764000	0.030000	2.885000	)
(	13.764000	0.050000	2.885000	)
(	13.764000	0.070000	2.885000	)
(	13.764000	0.090000	2.885000	)
(	13.764000	0.110000	2.885000	)
(	13.764000	0.130000	2.885000	)
(	13.764000	0.150000	2.885000	)
(	13.764000	0.170000	2.885000	)
(	13.764000	0.190000	2.885000	)
(	13.764000	0.010000	2.930000	)
(	13.764000	0.030000	2.930000	)
(	13.764000	0.050000	2.930000	)
(	13.764000	0.070000	2.930000	)
(	13.764000	0.090000	2.930000	)
(	13.764000	0.110000	2.930000	)
(	13.764000	0.130000	2.930000	)
(	13.764000	0.150000	2.930000	)
(	13.764000	0.170000	2.930000	)
(	13.764000	0.190000	2.930000	)
(	13.764000	0.010000	2.975000	)
(	13.764000	0.030000	2.975000	)
(	13.764000	0.050000	2.975000	)
(	13.764000	0.070000	2.975000	)
(	13.764000	0.090000	2.975000	)
(	13.764000	0.110000	2.975000	)
(	13.764000	0.130000	2.975000	)
(	13.764000	0.150000	2.975000	)
(	13.764000	0.170000	2.975000	)
(	13.764000	0.190000	2.975000	)
(	13.764000	0.010000	3.020000	)
(	13.764000	0.030000	3.020000	)
(	13.764000	0.050000	3.020000	)
(	13.764000	0.070000	3.020000	)
(	13.764000	0.090000	3.020000	)
(	13.764000	0.110000	3.020000	)
(	13.764000	0.130000	3.020000	)
(	13.764000	0.150000	3.020000	)
(	13.764000	0.170000	3.020000	)
(	13.764000	0.190000	3.020000	)
(	13.764000	0.010000	3.065000	)
(	13.764000	0.030000	3.065000	)
(	13.764000	0.050000	3.065000	)
(	13.764000	0.070000	3.065000	)
(	13.764000	0.090000	3.065000	)
(	13.764000	0.110000	3.065000	)
(	13.764000	0.130000	3.065000	)
(	13.764000	0.150000	3.065000	)
(	13.764000	0.170000	3.065000	)
(	13.764000	0.190000	3.065000	)
(	13.764000	0.010000	3.110000	)
(	13.764000	0.030000	3.110000	)
(	13.764000	0.050000	3.110000	)
(	13.764000	0.070000	3.110000	)
(	13.764000	0.090000	3.110000	)
(	13.764000	0.110000	3.110000	)
(	13.764000	0.130000	3.110000	)
(	13.764000	0.150000	3.110000	)
(	13.764000	0.170000	3.110000	)
(	13.764000	0.190000	3.110000	)
(	13.764000	0.010000	3.155000	)
(	13.764000	0.030000	3.155000	)
(	13.764000	0.050000	3.155000	)
(	13.764000	0.070000	3.155000	)
(	13.764000	0.090000	3.155000	)
(	13.764000	0.110000	3.155000	)
(	13.764000	0.130000	3.155000	)
(	13.764000	0.150000	3.155000	)
(	13.764000	0.170000	3.155000	)
(	13.764000	0.190000	3.155000	)
(	13.764000	0.010000	3.200000	)
(	13.764000	0.030000	3.200000	)
(	13.764000	0.050000	3.200000	)
(	13.764000	0.070000	3.200000	)
(	13.764000	0.090000	3.200000	)
(	13.764000	0.110000	3.200000	)
(	13.764000	0.130000	3.200000	)
(	13.764000	0.150000	3.200000	)
(	13.764000	0.170000	3.200000	)
(	13.764000	0.190000	3.200000	)
(	13.764000	0.010000	3.245000	)
(	13.764000	0.030000	3.245000	)
(	13.764000	0.050000	3.245000	)
(	13.764000	0.070000	3.245000	)
(	13.764000	0.090000	3.245000	)
(	13.764000	0.110000	3.245000	)
(	13.764000	0.130000	3.245000	)
(	13.764000	0.150000	3.245000	)
(	13.764000	0.170000	3.245000	)
(	13.764000	0.190000	3.245000	)
(	13.764000	0.010000	3.290000	)
(	13.764000	0.030000	3.290000	)
(	13.764000	0.050000	3.290000	)
(	13.764000	0.070000	3.290000	)
(	13.764000	0.090000	3.290000	)
(	13.764000	0.110000	3.290000	)
(	13.764000	0.130000	3.290000	)
(	13.764000	0.150000	3.290000	)
(	13.764000	0.170000	3.290000	)
(	13.764000	0.190000	3.290000	)
(	13.764000	0.010000	3.335000	)
(	13.764000	0.030000	3.335000	)
(	13.764000	0.050000	3.335000	)
(	13.764000	0.070000	3.335000	)
(	13.764000	0.090000	3.335000	)
(	13.764000	0.110000	3.335000	)
(	13.764000	0.130000	3.335000	)
(	13.764000	0.150000	3.335000	)
(	13.764000	0.170000	3.335000	)
(	13.764000	0.190000	3.335000	)

	);

};

LeeWard_Walls
    {
        
                type            probes;
        libs            ("libsampling.so");
        enabled         true;
        writeControl   timeStep;
        writeInterval  20;  //deltaT*writeInterval=0.02, this should make the probes to write U at every time step

        fields
        (
            U p
        );
        
        
        
        probeLocations //locations to be probed
        (


(	14.239000	0.010000	2.660000	)
(	14.239000	0.030000	2.660000	)
(	14.239000	0.050000	2.660000	)
(	14.239000	0.070000	2.660000	)
(	14.239000	0.090000	2.660000	)
(	14.239000	0.110000	2.660000	)
(	14.239000	0.130000	2.660000	)
(	14.239000	0.150000	2.660000	)
(	14.239000	0.170000	2.660000	)
(	14.239000	0.190000	2.660000	)
(	14.239000	0.010000	2.705000	)
(	14.239000	0.030000	2.705000	)
(	14.239000	0.050000	2.705000	)
(	14.239000	0.070000	2.705000	)
(	14.239000	0.090000	2.705000	)
(	14.239000	0.110000	2.705000	)
(	14.239000	0.130000	2.705000	)
(	14.239000	0.150000	2.705000	)
(	14.239000	0.170000	2.705000	)
(	14.239000	0.190000	2.705000	)
(	14.239000	0.010000	2.750000	)
(	14.239000	0.030000	2.750000	)
(	14.239000	0.050000	2.750000	)
(	14.239000	0.070000	2.750000	)
(	14.239000	0.090000	2.750000	)
(	14.239000	0.110000	2.750000	)
(	14.239000	0.130000	2.750000	)
(	14.239000	0.150000	2.750000	)
(	14.239000	0.170000	2.750000	)
(	14.239000	0.190000	2.750000	)
(	14.239000	0.010000	2.795000	)
(	14.239000	0.030000	2.795000	)
(	14.239000	0.050000	2.795000	)
(	14.239000	0.070000	2.795000	)
(	14.239000	0.090000	2.795000	)
(	14.239000	0.110000	2.795000	)
(	14.239000	0.130000	2.795000	)
(	14.239000	0.150000	2.795000	)
(	14.239000	0.170000	2.795000	)
(	14.239000	0.190000	2.795000	)
(	14.239000	0.010000	2.840000	)
(	14.239000	0.030000	2.840000	)
(	14.239000	0.050000	2.840000	)
(	14.239000	0.070000	2.840000	)
(	14.239000	0.090000	2.840000	)
(	14.239000	0.110000	2.840000	)
(	14.239000	0.130000	2.840000	)
(	14.239000	0.150000	2.840000	)
(	14.239000	0.170000	2.840000	)
(	14.239000	0.190000	2.840000	)
(	14.239000	0.010000	2.885000	)
(	14.239000	0.030000	2.885000	)
(	14.239000	0.050000	2.885000	)
(	14.239000	0.070000	2.885000	)
(	14.239000	0.090000	2.885000	)
(	14.239000	0.110000	2.885000	)
(	14.239000	0.130000	2.885000	)
(	14.239000	0.150000	2.885000	)
(	14.239000	0.170000	2.885000	)
(	14.239000	0.190000	2.885000	)
(	14.239000	0.010000	2.930000	)
(	14.239000	0.030000	2.930000	)
(	14.239000	0.050000	2.930000	)
(	14.239000	0.070000	2.930000	)
(	14.239000	0.090000	2.930000	)
(	14.239000	0.110000	2.930000	)
(	14.239000	0.130000	2.930000	)
(	14.239000	0.150000	2.930000	)
(	14.239000	0.170000	2.930000	)
(	14.239000	0.190000	2.930000	)
(	14.239000	0.010000	2.975000	)
(	14.239000	0.030000	2.975000	)
(	14.239000	0.050000	2.975000	)
(	14.239000	0.070000	2.975000	)
(	14.239000	0.090000	2.975000	)
(	14.239000	0.110000	2.975000	)
(	14.239000	0.130000	2.975000	)
(	14.239000	0.150000	2.975000	)
(	14.239000	0.170000	2.975000	)
(	14.239000	0.190000	2.975000	)
(	14.239000	0.010000	3.020000	)
(	14.239000	0.030000	3.020000	)
(	14.239000	0.050000	3.020000	)
(	14.239000	0.070000	3.020000	)
(	14.239000	0.090000	3.020000	)
(	14.239000	0.110000	3.020000	)
(	14.239000	0.130000	3.020000	)
(	14.239000	0.150000	3.020000	)
(	14.239000	0.170000	3.020000	)
(	14.239000	0.190000	3.020000	)
(	14.239000	0.010000	3.065000	)
(	14.239000	0.030000	3.065000	)
(	14.239000	0.050000	3.065000	)
(	14.239000	0.070000	3.065000	)
(	14.239000	0.090000	3.065000	)
(	14.239000	0.110000	3.065000	)
(	14.239000	0.130000	3.065000	)
(	14.239000	0.150000	3.065000	)
(	14.239000	0.170000	3.065000	)
(	14.239000	0.190000	3.065000	)
(	14.239000	0.010000	3.110000	)
(	14.239000	0.030000	3.110000	)
(	14.239000	0.050000	3.110000	)
(	14.239000	0.070000	3.110000	)
(	14.239000	0.090000	3.110000	)
(	14.239000	0.110000	3.110000	)
(	14.239000	0.130000	3.110000	)
(	14.239000	0.150000	3.110000	)
(	14.239000	0.170000	3.110000	)
(	14.239000	0.190000	3.110000	)
(	14.239000	0.010000	3.155000	)
(	14.239000	0.030000	3.155000	)
(	14.239000	0.050000	3.155000	)
(	14.239000	0.070000	3.155000	)
(	14.239000	0.090000	3.155000	)
(	14.239000	0.110000	3.155000	)
(	14.239000	0.130000	3.155000	)
(	14.239000	0.150000	3.155000	)
(	14.239000	0.170000	3.155000	)
(	14.239000	0.190000	3.155000	)
(	14.239000	0.010000	3.200000	)
(	14.239000	0.030000	3.200000	)
(	14.239000	0.050000	3.200000	)
(	14.239000	0.070000	3.200000	)
(	14.239000	0.090000	3.200000	)
(	14.239000	0.110000	3.200000	)
(	14.239000	0.130000	3.200000	)
(	14.239000	0.150000	3.200000	)
(	14.239000	0.170000	3.200000	)
(	14.239000	0.190000	3.200000	)
(	14.239000	0.010000	3.245000	)
(	14.239000	0.030000	3.245000	)
(	14.239000	0.050000	3.245000	)
(	14.239000	0.070000	3.245000	)
(	14.239000	0.090000	3.245000	)
(	14.239000	0.110000	3.245000	)
(	14.239000	0.130000	3.245000	)
(	14.239000	0.150000	3.245000	)
(	14.239000	0.170000	3.245000	)
(	14.239000	0.190000	3.245000	)
(	14.239000	0.010000	3.290000	)
(	14.239000	0.030000	3.290000	)
(	14.239000	0.050000	3.290000	)
(	14.239000	0.070000	3.290000	)
(	14.239000	0.090000	3.290000	)
(	14.239000	0.110000	3.290000	)
(	14.239000	0.130000	3.290000	)
(	14.239000	0.150000	3.290000	)
(	14.239000	0.170000	3.290000	)
(	14.239000	0.190000	3.290000	)
(	14.239000	0.010000	3.335000	)
(	14.239000	0.030000	3.335000	)
(	14.239000	0.050000	3.335000	)
(	14.239000	0.070000	3.335000	)
(	14.239000	0.090000	3.335000	)
(	14.239000	0.110000	3.335000	)
(	14.239000	0.130000	3.335000	)
(	14.239000	0.150000	3.335000	)
(	14.239000	0.170000	3.335000	)
(	14.239000	0.190000	3.335000	)

	);

};

North_side_wall
    {
        
                type            probes;
        libs            ("libsampling.so");
        enabled         true;
        writeControl   timeStep;
        writeInterval  20;  //deltaT*writeInterval=0.02, this should make the probes to write U at every time step

        fields
        (
            U p
        );
        
        
        
        probeLocations //locations to be probed
        (


(	13.785000	0.010000	2.639000	)
(	13.785000	0.030000	2.639000	)
(	13.785000	0.050000	2.639000	)
(	13.785000	0.070000	2.639000	)
(	13.785000	0.090000	2.639000	)
(	13.785000	0.110000	2.639000	)
(	13.785000	0.130000	2.639000	)
(	13.785000	0.150000	2.639000	)
(	13.785000	0.170000	2.639000	)
(	13.785000	0.190000	2.639000	)
(	13.828300	0.010000	2.639000	)
(	13.828300	0.030000	2.639000	)
(	13.828300	0.050000	2.639000	)
(	13.828300	0.070000	2.639000	)
(	13.828300	0.090000	2.639000	)
(	13.828300	0.110000	2.639000	)
(	13.828300	0.130000	2.639000	)
(	13.828300	0.150000	2.639000	)
(	13.828300	0.170000	2.639000	)
(	13.828300	0.190000	2.639000	)
(	13.871600	0.010000	2.639000	)
(	13.871600	0.030000	2.639000	)
(	13.871600	0.050000	2.639000	)
(	13.871600	0.070000	2.639000	)
(	13.871600	0.090000	2.639000	)
(	13.871600	0.110000	2.639000	)
(	13.871600	0.130000	2.639000	)
(	13.871600	0.150000	2.639000	)
(	13.871600	0.170000	2.639000	)
(	13.871600	0.190000	2.639000	)
(	13.914900	0.010000	2.639000	)
(	13.914900	0.030000	2.639000	)
(	13.914900	0.050000	2.639000	)
(	13.914900	0.070000	2.639000	)
(	13.914900	0.090000	2.639000	)
(	13.914900	0.110000	2.639000	)
(	13.914900	0.130000	2.639000	)
(	13.914900	0.150000	2.639000	)
(	13.914900	0.170000	2.639000	)
(	13.914900	0.190000	2.639000	)
(	13.958200	0.010000	2.639000	)
(	13.958200	0.030000	2.639000	)
(	13.958200	0.050000	2.639000	)
(	13.958200	0.070000	2.639000	)
(	13.958200	0.090000	2.639000	)
(	13.958200	0.110000	2.639000	)
(	13.958200	0.130000	2.639000	)
(	13.958200	0.150000	2.639000	)
(	13.958200	0.170000	2.639000	)
(	13.958200	0.190000	2.639000	)
(	14.001500	0.010000	2.639000	)
(	14.001500	0.030000	2.639000	)
(	14.001500	0.050000	2.639000	)
(	14.001500	0.070000	2.639000	)
(	14.001500	0.090000	2.639000	)
(	14.001500	0.110000	2.639000	)
(	14.001500	0.130000	2.639000	)
(	14.001500	0.150000	2.639000	)
(	14.001500	0.170000	2.639000	)
(	14.001500	0.190000	2.639000	)
(	14.044800	0.010000	2.639000	)
(	14.044800	0.030000	2.639000	)
(	14.044800	0.050000	2.639000	)
(	14.044800	0.070000	2.639000	)
(	14.044800	0.090000	2.639000	)
(	14.044800	0.110000	2.639000	)
(	14.044800	0.130000	2.639000	)
(	14.044800	0.150000	2.639000	)
(	14.044800	0.170000	2.639000	)
(	14.044800	0.190000	2.639000	)
(	14.088100	0.010000	2.639000	)
(	14.088100	0.030000	2.639000	)
(	14.088100	0.050000	2.639000	)
(	14.088100	0.070000	2.639000	)
(	14.088100	0.090000	2.639000	)
(	14.088100	0.110000	2.639000	)
(	14.088100	0.130000	2.639000	)
(	14.088100	0.150000	2.639000	)
(	14.088100	0.170000	2.639000	)
(	14.088100	0.190000	2.639000	)
(	14.131400	0.010000	2.639000	)
(	14.131400	0.030000	2.639000	)
(	14.131400	0.050000	2.639000	)
(	14.131400	0.070000	2.639000	)
(	14.131400	0.090000	2.639000	)
(	14.131400	0.110000	2.639000	)
(	14.131400	0.130000	2.639000	)
(	14.131400	0.150000	2.639000	)
(	14.131400	0.170000	2.639000	)
(	14.131400	0.190000	2.639000	)
(	14.174700	0.010000	2.639000	)
(	14.174700	0.030000	2.639000	)
(	14.174700	0.050000	2.639000	)
(	14.174700	0.070000	2.639000	)
(	14.174700	0.090000	2.639000	)
(	14.174700	0.110000	2.639000	)
(	14.174700	0.130000	2.639000	)
(	14.174700	0.150000	2.639000	)
(	14.174700	0.170000	2.639000	)
(	14.174700	0.190000	2.639000	)
(	14.218000	0.010000	2.639000	)
(	14.218000	0.030000	2.639000	)
(	14.218000	0.050000	2.639000	)
(	14.218000	0.070000	2.639000	)
(	14.218000	0.090000	2.639000	)
(	14.218000	0.110000	2.639000	)
(	14.218000	0.130000	2.639000	)
(	14.218000	0.150000	2.639000	)
(	14.218000	0.170000	2.639000	)
(	14.218000	0.190000	2.639000	)
 
	);

};

South_side_wall
    {
        
                type            probes;
        libs            ("libsampling.so");
        enabled         true;
        writeControl   timeStep;
        writeInterval  20;  //deltaT*writeInterval=0.02, this should make the probes to write U at every time step

        fields
        (
            U p
        );
        
        
        
        probeLocations //locations to be probed
        (


(	13.785000	0.010000	3.356000	)
(	13.785000	0.030000	3.356000	)
(	13.785000	0.050000	3.356000	)
(	13.785000	0.070000	3.356000	)
(	13.785000	0.090000	3.356000	)